[root]
type=Root
children=system
eventq_index=0
full_system=true
sim_quantum=0
time_sync_enable=false
time_sync_period=100000000000
time_sync_spin_threshold=100000000

[system]
type=LinuxX86System
children=acpi_description_table_pointer apicbridge bridge clk_domain cpu0 cpu1 cpu2 cpu3 cpu4 cpu5 cpu6 cpu7 cpu_clk_domain cpu_voltage_domain dvfs_handler e820_table intel_mp_pointer intel_mp_table intrctrl iobus iocache l2 mem_ctrls membus pc smbios_table tol2bus voltage_domain
acpi_description_table_pointer=system.acpi_description_table_pointer
boot_osflags=earlyprintk=ttyS0 console=ttyS0 lpj=7999923 root=/dev/hda1
cache_line_size=64
clk_domain=system.clk_domain
default_p_state=UNDEFINED
e820_table=system.e820_table
eventq_index=0
exit_on_work_items=false
init_param=0
intel_mp_pointer=system.intel_mp_pointer
intel_mp_table=system.intel_mp_table
kernel=/home/vsm2/coursework/ECE511/gem5_assignment3_msi_tagged/binaries/x86_64-vmlinux-2.6.22.9
kernel_addr_check=true
kvm_vm=Null
load_addr_mask=18446744073709551615
load_offset=0
mem_mode=timing
mem_ranges=0:536870911:0:0:0:0
memories=system.mem_ctrls
mmap_using_noreserve=false
multi_thread=false
num_work_ids=16
p_state_clk_gate_bins=20
p_state_clk_gate_max=1000000000000
p_state_clk_gate_min=1000
power_model=Null
readfile=./blackscholes.rcS
smbios_table=system.smbios_table
symbolfile=
thermal_components=
thermal_model=Null
work_begin_ckpt_count=0
work_begin_cpu_id_exit=-1
work_begin_exit_count=0
work_cpus_ckpt_count=0
work_end_ckpt_count=0
work_end_exit_count=0
work_item_id=-1
system_port=system.membus.slave[1]

[system.acpi_description_table_pointer]
type=X86ACPIRSDP
children=xsdt
eventq_index=0
oem_id=
revision=2
rsdt=Null
xsdt=system.acpi_description_table_pointer.xsdt

[system.acpi_description_table_pointer.xsdt]
type=X86ACPIXSDT
creator_id=
creator_revision=0
entries=
eventq_index=0
oem_id=
oem_revision=0
oem_table_id=

[system.apicbridge]
type=Bridge
clk_domain=system.clk_domain
default_p_state=UNDEFINED
delay=50000
eventq_index=0
p_state_clk_gate_bins=20
p_state_clk_gate_max=1000000000000
p_state_clk_gate_min=1000
power_model=Null
ranges=11529215046068469760:11529215046068502527:0:0:0:0
req_size=16
resp_size=16
master=system.membus.slave[0]
slave=system.iobus.master[0]

[system.bridge]
type=Bridge
clk_domain=system.clk_domain
default_p_state=UNDEFINED
delay=50000
eventq_index=0
p_state_clk_gate_bins=20
p_state_clk_gate_max=1000000000000
p_state_clk_gate_min=1000
power_model=Null
ranges=3221225472:4294901760:0:0:0:0 9223372036854775808:11529215046068469759:0:0:0:0 13835058055282163712:18446744073709551615:0:0:0:0
req_size=16
resp_size=16
master=system.iobus.slave[0]
slave=system.membus.master[0]

[system.clk_domain]
type=SrcClockDomain
clock=1000
domain_id=-1
eventq_index=0
init_perf_level=0
voltage_domain=system.voltage_domain

[system.cpu0]
type=TimingSimpleCPU
children=apic_clk_domain dcache dtb dtb_walker_cache icache interrupts isa itb itb_walker_cache tracer
branchPred=Null
checker=Null
clk_domain=system.cpu_clk_domain
cpu_id=0
default_p_state=UNDEFINED
do_checkpoint_insts=true
do_quiesce=true
do_statistics_insts=true
dtb=system.cpu0.dtb
eventq_index=0
function_trace=false
function_trace_start=0
interrupts=system.cpu0.interrupts
isa=system.cpu0.isa
itb=system.cpu0.itb
max_insts_all_threads=0
max_insts_any_thread=300000000
max_loads_all_threads=0
max_loads_any_thread=0
numThreads=1
p_state_clk_gate_bins=20
p_state_clk_gate_max=1000000000000
p_state_clk_gate_min=1000
power_model=Null
profile=0
progress_interval=0
simpoint_start_insts=
socket_id=0
switched_out=false
syscallRetryLatency=10000
system=system
tracer=system.cpu0.tracer
wait_for_remote_gdb=false
workload=
dcache_port=system.cpu0.dcache.cpu_side
icache_port=system.cpu0.icache.cpu_side

[system.cpu0.apic_clk_domain]
type=DerivedClockDomain
clk_divider=16
clk_domain=system.cpu_clk_domain
eventq_index=0

[system.cpu0.dcache]
type=Cache
children=tags
addr_ranges=0:18446744073709551615:0:0:0:0
assoc=2
clk_domain=system.cpu_clk_domain
clusivity=mostly_incl
data_latency=2
default_p_state=UNDEFINED
demand_mshr_reserve=1
eventq_index=0
is_read_only=false
max_miss_count=0
mshrs=4
p_state_clk_gate_bins=20
p_state_clk_gate_max=1000000000000
p_state_clk_gate_min=1000
power_model=Null
prefetch_on_access=false
prefetcher=Null
response_latency=2
sequential_access=false
size=65536
system=system
tag_latency=2
tags=system.cpu0.dcache.tags
tgts_per_mshr=20
write_buffers=8
writeback_clean=false
cpu_side=system.cpu0.dcache_port
mem_side=system.tol2bus.slave[1]

[system.cpu0.dcache.tags]
type=LRU
assoc=2
block_size=64
clk_domain=system.cpu_clk_domain
data_latency=2
default_p_state=UNDEFINED
eventq_index=0
p_state_clk_gate_bins=20
p_state_clk_gate_max=1000000000000
p_state_clk_gate_min=1000
power_model=Null
sequential_access=false
size=65536
tag_latency=2

[system.cpu0.dtb]
type=X86TLB
children=walker
eventq_index=0
size=64
walker=system.cpu0.dtb.walker

[system.cpu0.dtb.walker]
type=X86PagetableWalker
clk_domain=system.cpu_clk_domain
default_p_state=UNDEFINED
eventq_index=0
num_squash_per_cycle=4
p_state_clk_gate_bins=20
p_state_clk_gate_max=1000000000000
p_state_clk_gate_min=1000
power_model=Null
system=system
port=system.cpu0.dtb_walker_cache.cpu_side

[system.cpu0.dtb_walker_cache]
type=Cache
children=tags
addr_ranges=0:18446744073709551615:0:0:0:0
assoc=2
clk_domain=system.cpu_clk_domain
clusivity=mostly_incl
data_latency=2
default_p_state=UNDEFINED
demand_mshr_reserve=1
eventq_index=0
is_read_only=false
max_miss_count=0
mshrs=10
p_state_clk_gate_bins=20
p_state_clk_gate_max=1000000000000
p_state_clk_gate_min=1000
power_model=Null
prefetch_on_access=false
prefetcher=Null
response_latency=2
sequential_access=false
size=1024
system=system
tag_latency=2
tags=system.cpu0.dtb_walker_cache.tags
tgts_per_mshr=12
write_buffers=8
writeback_clean=false
cpu_side=system.cpu0.dtb.walker.port
mem_side=system.tol2bus.slave[3]

[system.cpu0.dtb_walker_cache.tags]
type=LRU
assoc=2
block_size=64
clk_domain=system.cpu_clk_domain
data_latency=2
default_p_state=UNDEFINED
eventq_index=0
p_state_clk_gate_bins=20
p_state_clk_gate_max=1000000000000
p_state_clk_gate_min=1000
power_model=Null
sequential_access=false
size=1024
tag_latency=2

[system.cpu0.icache]
type=Cache
children=tags
addr_ranges=0:18446744073709551615:0:0:0:0
assoc=2
clk_domain=system.cpu_clk_domain
clusivity=mostly_incl
data_latency=2
default_p_state=UNDEFINED
demand_mshr_reserve=1
eventq_index=0
is_read_only=true
max_miss_count=0
mshrs=4
p_state_clk_gate_bins=20
p_state_clk_gate_max=1000000000000
p_state_clk_gate_min=1000
power_model=Null
prefetch_on_access=false
prefetcher=Null
response_latency=2
sequential_access=false
size=32768
system=system
tag_latency=2
tags=system.cpu0.icache.tags
tgts_per_mshr=20
write_buffers=8
writeback_clean=true
cpu_side=system.cpu0.icache_port
mem_side=system.tol2bus.slave[0]

[system.cpu0.icache.tags]
type=LRU
assoc=2
block_size=64
clk_domain=system.cpu_clk_domain
data_latency=2
default_p_state=UNDEFINED
eventq_index=0
p_state_clk_gate_bins=20
p_state_clk_gate_max=1000000000000
p_state_clk_gate_min=1000
power_model=Null
sequential_access=false
size=32768
tag_latency=2

[system.cpu0.interrupts]
type=X86LocalApic
clk_domain=system.cpu0.apic_clk_domain
default_p_state=UNDEFINED
eventq_index=0
int_latency=1000
p_state_clk_gate_bins=20
p_state_clk_gate_max=1000000000000
p_state_clk_gate_min=1000
pio_addr=2305843009213693952
pio_latency=100000
power_model=Null
system=system
int_master=system.membus.slave[4]
int_slave=system.membus.master[2]
pio=system.membus.master[1]

[system.cpu0.isa]
type=X86ISA
eventq_index=0

[system.cpu0.itb]
type=X86TLB
children=walker
eventq_index=0
size=64
walker=system.cpu0.itb.walker

[system.cpu0.itb.walker]
type=X86PagetableWalker
clk_domain=system.cpu_clk_domain
default_p_state=UNDEFINED
eventq_index=0
num_squash_per_cycle=4
p_state_clk_gate_bins=20
p_state_clk_gate_max=1000000000000
p_state_clk_gate_min=1000
power_model=Null
system=system
port=system.cpu0.itb_walker_cache.cpu_side

[system.cpu0.itb_walker_cache]
type=Cache
children=tags
addr_ranges=0:18446744073709551615:0:0:0:0
assoc=2
clk_domain=system.cpu_clk_domain
clusivity=mostly_incl
data_latency=2
default_p_state=UNDEFINED
demand_mshr_reserve=1
eventq_index=0
is_read_only=false
max_miss_count=0
mshrs=10
p_state_clk_gate_bins=20
p_state_clk_gate_max=1000000000000
p_state_clk_gate_min=1000
power_model=Null
prefetch_on_access=false
prefetcher=Null
response_latency=2
sequential_access=false
size=1024
system=system
tag_latency=2
tags=system.cpu0.itb_walker_cache.tags
tgts_per_mshr=12
write_buffers=8
writeback_clean=false
cpu_side=system.cpu0.itb.walker.port
mem_side=system.tol2bus.slave[2]

[system.cpu0.itb_walker_cache.tags]
type=LRU
assoc=2
block_size=64
clk_domain=system.cpu_clk_domain
data_latency=2
default_p_state=UNDEFINED
eventq_index=0
p_state_clk_gate_bins=20
p_state_clk_gate_max=1000000000000
p_state_clk_gate_min=1000
power_model=Null
sequential_access=false
size=1024
tag_latency=2

[system.cpu0.tracer]
type=ExeTracer
eventq_index=0

[system.cpu1]
type=TimingSimpleCPU
children=apic_clk_domain dcache dtb dtb_walker_cache icache interrupts isa itb itb_walker_cache tracer
branchPred=Null
checker=Null
clk_domain=system.cpu_clk_domain
cpu_id=1
default_p_state=UNDEFINED
do_checkpoint_insts=true
do_quiesce=true
do_statistics_insts=true
dtb=system.cpu1.dtb
eventq_index=0
function_trace=false
function_trace_start=0
interrupts=system.cpu1.interrupts
isa=system.cpu1.isa
itb=system.cpu1.itb
max_insts_all_threads=0
max_insts_any_thread=300000000
max_loads_all_threads=0
max_loads_any_thread=0
numThreads=1
p_state_clk_gate_bins=20
p_state_clk_gate_max=1000000000000
p_state_clk_gate_min=1000
power_model=Null
profile=0
progress_interval=0
simpoint_start_insts=
socket_id=0
switched_out=false
syscallRetryLatency=10000
system=system
tracer=system.cpu1.tracer
wait_for_remote_gdb=false
workload=
dcache_port=system.cpu1.dcache.cpu_side
icache_port=system.cpu1.icache.cpu_side

[system.cpu1.apic_clk_domain]
type=DerivedClockDomain
clk_divider=16
clk_domain=system.cpu_clk_domain
eventq_index=0

[system.cpu1.dcache]
type=Cache
children=tags
addr_ranges=0:18446744073709551615:0:0:0:0
assoc=2
clk_domain=system.cpu_clk_domain
clusivity=mostly_incl
data_latency=2
default_p_state=UNDEFINED
demand_mshr_reserve=1
eventq_index=0
is_read_only=false
max_miss_count=0
mshrs=4
p_state_clk_gate_bins=20
p_state_clk_gate_max=1000000000000
p_state_clk_gate_min=1000
power_model=Null
prefetch_on_access=false
prefetcher=Null
response_latency=2
sequential_access=false
size=65536
system=system
tag_latency=2
tags=system.cpu1.dcache.tags
tgts_per_mshr=20
write_buffers=8
writeback_clean=false
cpu_side=system.cpu1.dcache_port
mem_side=system.tol2bus.slave[5]

[system.cpu1.dcache.tags]
type=LRU
assoc=2
block_size=64
clk_domain=system.cpu_clk_domain
data_latency=2
default_p_state=UNDEFINED
eventq_index=0
p_state_clk_gate_bins=20
p_state_clk_gate_max=1000000000000
p_state_clk_gate_min=1000
power_model=Null
sequential_access=false
size=65536
tag_latency=2

[system.cpu1.dtb]
type=X86TLB
children=walker
eventq_index=0
size=64
walker=system.cpu1.dtb.walker

[system.cpu1.dtb.walker]
type=X86PagetableWalker
clk_domain=system.cpu_clk_domain
default_p_state=UNDEFINED
eventq_index=0
num_squash_per_cycle=4
p_state_clk_gate_bins=20
p_state_clk_gate_max=1000000000000
p_state_clk_gate_min=1000
power_model=Null
system=system
port=system.cpu1.dtb_walker_cache.cpu_side

[system.cpu1.dtb_walker_cache]
type=Cache
children=tags
addr_ranges=0:18446744073709551615:0:0:0:0
assoc=2
clk_domain=system.cpu_clk_domain
clusivity=mostly_incl
data_latency=2
default_p_state=UNDEFINED
demand_mshr_reserve=1
eventq_index=0
is_read_only=false
max_miss_count=0
mshrs=10
p_state_clk_gate_bins=20
p_state_clk_gate_max=1000000000000
p_state_clk_gate_min=1000
power_model=Null
prefetch_on_access=false
prefetcher=Null
response_latency=2
sequential_access=false
size=1024
system=system
tag_latency=2
tags=system.cpu1.dtb_walker_cache.tags
tgts_per_mshr=12
write_buffers=8
writeback_clean=false
cpu_side=system.cpu1.dtb.walker.port
mem_side=system.tol2bus.slave[7]

[system.cpu1.dtb_walker_cache.tags]
type=LRU
assoc=2
block_size=64
clk_domain=system.cpu_clk_domain
data_latency=2
default_p_state=UNDEFINED
eventq_index=0
p_state_clk_gate_bins=20
p_state_clk_gate_max=1000000000000
p_state_clk_gate_min=1000
power_model=Null
sequential_access=false
size=1024
tag_latency=2

[system.cpu1.icache]
type=Cache
children=tags
addr_ranges=0:18446744073709551615:0:0:0:0
assoc=2
clk_domain=system.cpu_clk_domain
clusivity=mostly_incl
data_latency=2
default_p_state=UNDEFINED
demand_mshr_reserve=1
eventq_index=0
is_read_only=true
max_miss_count=0
mshrs=4
p_state_clk_gate_bins=20
p_state_clk_gate_max=1000000000000
p_state_clk_gate_min=1000
power_model=Null
prefetch_on_access=false
prefetcher=Null
response_latency=2
sequential_access=false
size=32768
system=system
tag_latency=2
tags=system.cpu1.icache.tags
tgts_per_mshr=20
write_buffers=8
writeback_clean=true
cpu_side=system.cpu1.icache_port
mem_side=system.tol2bus.slave[4]

[system.cpu1.icache.tags]
type=LRU
assoc=2
block_size=64
clk_domain=system.cpu_clk_domain
data_latency=2
default_p_state=UNDEFINED
eventq_index=0
p_state_clk_gate_bins=20
p_state_clk_gate_max=1000000000000
p_state_clk_gate_min=1000
power_model=Null
sequential_access=false
size=32768
tag_latency=2

[system.cpu1.interrupts]
type=X86LocalApic
clk_domain=system.cpu1.apic_clk_domain
default_p_state=UNDEFINED
eventq_index=0
int_latency=1000
p_state_clk_gate_bins=20
p_state_clk_gate_max=1000000000000
p_state_clk_gate_min=1000
pio_addr=2305843009213693952
pio_latency=100000
power_model=Null
system=system
int_master=system.membus.slave[5]
int_slave=system.membus.master[4]
pio=system.membus.master[3]

[system.cpu1.isa]
type=X86ISA
eventq_index=0

[system.cpu1.itb]
type=X86TLB
children=walker
eventq_index=0
size=64
walker=system.cpu1.itb.walker

[system.cpu1.itb.walker]
type=X86PagetableWalker
clk_domain=system.cpu_clk_domain
default_p_state=UNDEFINED
eventq_index=0
num_squash_per_cycle=4
p_state_clk_gate_bins=20
p_state_clk_gate_max=1000000000000
p_state_clk_gate_min=1000
power_model=Null
system=system
port=system.cpu1.itb_walker_cache.cpu_side

[system.cpu1.itb_walker_cache]
type=Cache
children=tags
addr_ranges=0:18446744073709551615:0:0:0:0
assoc=2
clk_domain=system.cpu_clk_domain
clusivity=mostly_incl
data_latency=2
default_p_state=UNDEFINED
demand_mshr_reserve=1
eventq_index=0
is_read_only=false
max_miss_count=0
mshrs=10
p_state_clk_gate_bins=20
p_state_clk_gate_max=1000000000000
p_state_clk_gate_min=1000
power_model=Null
prefetch_on_access=false
prefetcher=Null
response_latency=2
sequential_access=false
size=1024
system=system
tag_latency=2
tags=system.cpu1.itb_walker_cache.tags
tgts_per_mshr=12
write_buffers=8
writeback_clean=false
cpu_side=system.cpu1.itb.walker.port
mem_side=system.tol2bus.slave[6]

[system.cpu1.itb_walker_cache.tags]
type=LRU
assoc=2
block_size=64
clk_domain=system.cpu_clk_domain
data_latency=2
default_p_state=UNDEFINED
eventq_index=0
p_state_clk_gate_bins=20
p_state_clk_gate_max=1000000000000
p_state_clk_gate_min=1000
power_model=Null
sequential_access=false
size=1024
tag_latency=2

[system.cpu1.tracer]
type=ExeTracer
eventq_index=0

[system.cpu2]
type=TimingSimpleCPU
children=apic_clk_domain dcache dtb dtb_walker_cache icache interrupts isa itb itb_walker_cache tracer
branchPred=Null
checker=Null
clk_domain=system.cpu_clk_domain
cpu_id=2
default_p_state=UNDEFINED
do_checkpoint_insts=true
do_quiesce=true
do_statistics_insts=true
dtb=system.cpu2.dtb
eventq_index=0
function_trace=false
function_trace_start=0
interrupts=system.cpu2.interrupts
isa=system.cpu2.isa
itb=system.cpu2.itb
max_insts_all_threads=0
max_insts_any_thread=300000000
max_loads_all_threads=0
max_loads_any_thread=0
numThreads=1
p_state_clk_gate_bins=20
p_state_clk_gate_max=1000000000000
p_state_clk_gate_min=1000
power_model=Null
profile=0
progress_interval=0
simpoint_start_insts=
socket_id=0
switched_out=false
syscallRetryLatency=10000
system=system
tracer=system.cpu2.tracer
wait_for_remote_gdb=false
workload=
dcache_port=system.cpu2.dcache.cpu_side
icache_port=system.cpu2.icache.cpu_side

[system.cpu2.apic_clk_domain]
type=DerivedClockDomain
clk_divider=16
clk_domain=system.cpu_clk_domain
eventq_index=0

[system.cpu2.dcache]
type=Cache
children=tags
addr_ranges=0:18446744073709551615:0:0:0:0
assoc=2
clk_domain=system.cpu_clk_domain
clusivity=mostly_incl
data_latency=2
default_p_state=UNDEFINED
demand_mshr_reserve=1
eventq_index=0
is_read_only=false
max_miss_count=0
mshrs=4
p_state_clk_gate_bins=20
p_state_clk_gate_max=1000000000000
p_state_clk_gate_min=1000
power_model=Null
prefetch_on_access=false
prefetcher=Null
response_latency=2
sequential_access=false
size=65536
system=system
tag_latency=2
tags=system.cpu2.dcache.tags
tgts_per_mshr=20
write_buffers=8
writeback_clean=false
cpu_side=system.cpu2.dcache_port
mem_side=system.tol2bus.slave[9]

[system.cpu2.dcache.tags]
type=LRU
assoc=2
block_size=64
clk_domain=system.cpu_clk_domain
data_latency=2
default_p_state=UNDEFINED
eventq_index=0
p_state_clk_gate_bins=20
p_state_clk_gate_max=1000000000000
p_state_clk_gate_min=1000
power_model=Null
sequential_access=false
size=65536
tag_latency=2

[system.cpu2.dtb]
type=X86TLB
children=walker
eventq_index=0
size=64
walker=system.cpu2.dtb.walker

[system.cpu2.dtb.walker]
type=X86PagetableWalker
clk_domain=system.cpu_clk_domain
default_p_state=UNDEFINED
eventq_index=0
num_squash_per_cycle=4
p_state_clk_gate_bins=20
p_state_clk_gate_max=1000000000000
p_state_clk_gate_min=1000
power_model=Null
system=system
port=system.cpu2.dtb_walker_cache.cpu_side

[system.cpu2.dtb_walker_cache]
type=Cache
children=tags
addr_ranges=0:18446744073709551615:0:0:0:0
assoc=2
clk_domain=system.cpu_clk_domain
clusivity=mostly_incl
data_latency=2
default_p_state=UNDEFINED
demand_mshr_reserve=1
eventq_index=0
is_read_only=false
max_miss_count=0
mshrs=10
p_state_clk_gate_bins=20
p_state_clk_gate_max=1000000000000
p_state_clk_gate_min=1000
power_model=Null
prefetch_on_access=false
prefetcher=Null
response_latency=2
sequential_access=false
size=1024
system=system
tag_latency=2
tags=system.cpu2.dtb_walker_cache.tags
tgts_per_mshr=12
write_buffers=8
writeback_clean=false
cpu_side=system.cpu2.dtb.walker.port
mem_side=system.tol2bus.slave[11]

[system.cpu2.dtb_walker_cache.tags]
type=LRU
assoc=2
block_size=64
clk_domain=system.cpu_clk_domain
data_latency=2
default_p_state=UNDEFINED
eventq_index=0
p_state_clk_gate_bins=20
p_state_clk_gate_max=1000000000000
p_state_clk_gate_min=1000
power_model=Null
sequential_access=false
size=1024
tag_latency=2

[system.cpu2.icache]
type=Cache
children=tags
addr_ranges=0:18446744073709551615:0:0:0:0
assoc=2
clk_domain=system.cpu_clk_domain
clusivity=mostly_incl
data_latency=2
default_p_state=UNDEFINED
demand_mshr_reserve=1
eventq_index=0
is_read_only=true
max_miss_count=0
mshrs=4
p_state_clk_gate_bins=20
p_state_clk_gate_max=1000000000000
p_state_clk_gate_min=1000
power_model=Null
prefetch_on_access=false
prefetcher=Null
response_latency=2
sequential_access=false
size=32768
system=system
tag_latency=2
tags=system.cpu2.icache.tags
tgts_per_mshr=20
write_buffers=8
writeback_clean=true
cpu_side=system.cpu2.icache_port
mem_side=system.tol2bus.slave[8]

[system.cpu2.icache.tags]
type=LRU
assoc=2
block_size=64
clk_domain=system.cpu_clk_domain
data_latency=2
default_p_state=UNDEFINED
eventq_index=0
p_state_clk_gate_bins=20
p_state_clk_gate_max=1000000000000
p_state_clk_gate_min=1000
power_model=Null
sequential_access=false
size=32768
tag_latency=2

[system.cpu2.interrupts]
type=X86LocalApic
clk_domain=system.cpu2.apic_clk_domain
default_p_state=UNDEFINED
eventq_index=0
int_latency=1000
p_state_clk_gate_bins=20
p_state_clk_gate_max=1000000000000
p_state_clk_gate_min=1000
pio_addr=2305843009213693952
pio_latency=100000
power_model=Null
system=system
int_master=system.membus.slave[6]
int_slave=system.membus.master[6]
pio=system.membus.master[5]

[system.cpu2.isa]
type=X86ISA
eventq_index=0

[system.cpu2.itb]
type=X86TLB
children=walker
eventq_index=0
size=64
walker=system.cpu2.itb.walker

[system.cpu2.itb.walker]
type=X86PagetableWalker
clk_domain=system.cpu_clk_domain
default_p_state=UNDEFINED
eventq_index=0
num_squash_per_cycle=4
p_state_clk_gate_bins=20
p_state_clk_gate_max=1000000000000
p_state_clk_gate_min=1000
power_model=Null
system=system
port=system.cpu2.itb_walker_cache.cpu_side

[system.cpu2.itb_walker_cache]
type=Cache
children=tags
addr_ranges=0:18446744073709551615:0:0:0:0
assoc=2
clk_domain=system.cpu_clk_domain
clusivity=mostly_incl
data_latency=2
default_p_state=UNDEFINED
demand_mshr_reserve=1
eventq_index=0
is_read_only=false
max_miss_count=0
mshrs=10
p_state_clk_gate_bins=20
p_state_clk_gate_max=1000000000000
p_state_clk_gate_min=1000
power_model=Null
prefetch_on_access=false
prefetcher=Null
response_latency=2
sequential_access=false
size=1024
system=system
tag_latency=2
tags=system.cpu2.itb_walker_cache.tags
tgts_per_mshr=12
write_buffers=8
writeback_clean=false
cpu_side=system.cpu2.itb.walker.port
mem_side=system.tol2bus.slave[10]

[system.cpu2.itb_walker_cache.tags]
type=LRU
assoc=2
block_size=64
clk_domain=system.cpu_clk_domain
data_latency=2
default_p_state=UNDEFINED
eventq_index=0
p_state_clk_gate_bins=20
p_state_clk_gate_max=1000000000000
p_state_clk_gate_min=1000
power_model=Null
sequential_access=false
size=1024
tag_latency=2

[system.cpu2.tracer]
type=ExeTracer
eventq_index=0

[system.cpu3]
type=TimingSimpleCPU
children=apic_clk_domain dcache dtb dtb_walker_cache icache interrupts isa itb itb_walker_cache tracer
branchPred=Null
checker=Null
clk_domain=system.cpu_clk_domain
cpu_id=3
default_p_state=UNDEFINED
do_checkpoint_insts=true
do_quiesce=true
do_statistics_insts=true
dtb=system.cpu3.dtb
eventq_index=0
function_trace=false
function_trace_start=0
interrupts=system.cpu3.interrupts
isa=system.cpu3.isa
itb=system.cpu3.itb
max_insts_all_threads=0
max_insts_any_thread=300000000
max_loads_all_threads=0
max_loads_any_thread=0
numThreads=1
p_state_clk_gate_bins=20
p_state_clk_gate_max=1000000000000
p_state_clk_gate_min=1000
power_model=Null
profile=0
progress_interval=0
simpoint_start_insts=
socket_id=0
switched_out=false
syscallRetryLatency=10000
system=system
tracer=system.cpu3.tracer
wait_for_remote_gdb=false
workload=
dcache_port=system.cpu3.dcache.cpu_side
icache_port=system.cpu3.icache.cpu_side

[system.cpu3.apic_clk_domain]
type=DerivedClockDomain
clk_divider=16
clk_domain=system.cpu_clk_domain
eventq_index=0

[system.cpu3.dcache]
type=Cache
children=tags
addr_ranges=0:18446744073709551615:0:0:0:0
assoc=2
clk_domain=system.cpu_clk_domain
clusivity=mostly_incl
data_latency=2
default_p_state=UNDEFINED
demand_mshr_reserve=1
eventq_index=0
is_read_only=false
max_miss_count=0
mshrs=4
p_state_clk_gate_bins=20
p_state_clk_gate_max=1000000000000
p_state_clk_gate_min=1000
power_model=Null
prefetch_on_access=false
prefetcher=Null
response_latency=2
sequential_access=false
size=65536
system=system
tag_latency=2
tags=system.cpu3.dcache.tags
tgts_per_mshr=20
write_buffers=8
writeback_clean=false
cpu_side=system.cpu3.dcache_port
mem_side=system.tol2bus.slave[13]

[system.cpu3.dcache.tags]
type=LRU
assoc=2
block_size=64
clk_domain=system.cpu_clk_domain
data_latency=2
default_p_state=UNDEFINED
eventq_index=0
p_state_clk_gate_bins=20
p_state_clk_gate_max=1000000000000
p_state_clk_gate_min=1000
power_model=Null
sequential_access=false
size=65536
tag_latency=2

[system.cpu3.dtb]
type=X86TLB
children=walker
eventq_index=0
size=64
walker=system.cpu3.dtb.walker

[system.cpu3.dtb.walker]
type=X86PagetableWalker
clk_domain=system.cpu_clk_domain
default_p_state=UNDEFINED
eventq_index=0
num_squash_per_cycle=4
p_state_clk_gate_bins=20
p_state_clk_gate_max=1000000000000
p_state_clk_gate_min=1000
power_model=Null
system=system
port=system.cpu3.dtb_walker_cache.cpu_side

[system.cpu3.dtb_walker_cache]
type=Cache
children=tags
addr_ranges=0:18446744073709551615:0:0:0:0
assoc=2
clk_domain=system.cpu_clk_domain
clusivity=mostly_incl
data_latency=2
default_p_state=UNDEFINED
demand_mshr_reserve=1
eventq_index=0
is_read_only=false
max_miss_count=0
mshrs=10
p_state_clk_gate_bins=20
p_state_clk_gate_max=1000000000000
p_state_clk_gate_min=1000
power_model=Null
prefetch_on_access=false
prefetcher=Null
response_latency=2
sequential_access=false
size=1024
system=system
tag_latency=2
tags=system.cpu3.dtb_walker_cache.tags
tgts_per_mshr=12
write_buffers=8
writeback_clean=false
cpu_side=system.cpu3.dtb.walker.port
mem_side=system.tol2bus.slave[15]

[system.cpu3.dtb_walker_cache.tags]
type=LRU
assoc=2
block_size=64
clk_domain=system.cpu_clk_domain
data_latency=2
default_p_state=UNDEFINED
eventq_index=0
p_state_clk_gate_bins=20
p_state_clk_gate_max=1000000000000
p_state_clk_gate_min=1000
power_model=Null
sequential_access=false
size=1024
tag_latency=2

[system.cpu3.icache]
type=Cache
children=tags
addr_ranges=0:18446744073709551615:0:0:0:0
assoc=2
clk_domain=system.cpu_clk_domain
clusivity=mostly_incl
data_latency=2
default_p_state=UNDEFINED
demand_mshr_reserve=1
eventq_index=0
is_read_only=true
max_miss_count=0
mshrs=4
p_state_clk_gate_bins=20
p_state_clk_gate_max=1000000000000
p_state_clk_gate_min=1000
power_model=Null
prefetch_on_access=false
prefetcher=Null
response_latency=2
sequential_access=false
size=32768
system=system
tag_latency=2
tags=system.cpu3.icache.tags
tgts_per_mshr=20
write_buffers=8
writeback_clean=true
cpu_side=system.cpu3.icache_port
mem_side=system.tol2bus.slave[12]

[system.cpu3.icache.tags]
type=LRU
assoc=2
block_size=64
clk_domain=system.cpu_clk_domain
data_latency=2
default_p_state=UNDEFINED
eventq_index=0
p_state_clk_gate_bins=20
p_state_clk_gate_max=1000000000000
p_state_clk_gate_min=1000
power_model=Null
sequential_access=false
size=32768
tag_latency=2

[system.cpu3.interrupts]
type=X86LocalApic
clk_domain=system.cpu3.apic_clk_domain
default_p_state=UNDEFINED
eventq_index=0
int_latency=1000
p_state_clk_gate_bins=20
p_state_clk_gate_max=1000000000000
p_state_clk_gate_min=1000
pio_addr=2305843009213693952
pio_latency=100000
power_model=Null
system=system
int_master=system.membus.slave[7]
int_slave=system.membus.master[8]
pio=system.membus.master[7]

[system.cpu3.isa]
type=X86ISA
eventq_index=0

[system.cpu3.itb]
type=X86TLB
children=walker
eventq_index=0
size=64
walker=system.cpu3.itb.walker

[system.cpu3.itb.walker]
type=X86PagetableWalker
clk_domain=system.cpu_clk_domain
default_p_state=UNDEFINED
eventq_index=0
num_squash_per_cycle=4
p_state_clk_gate_bins=20
p_state_clk_gate_max=1000000000000
p_state_clk_gate_min=1000
power_model=Null
system=system
port=system.cpu3.itb_walker_cache.cpu_side

[system.cpu3.itb_walker_cache]
type=Cache
children=tags
addr_ranges=0:18446744073709551615:0:0:0:0
assoc=2
clk_domain=system.cpu_clk_domain
clusivity=mostly_incl
data_latency=2
default_p_state=UNDEFINED
demand_mshr_reserve=1
eventq_index=0
is_read_only=false
max_miss_count=0
mshrs=10
p_state_clk_gate_bins=20
p_state_clk_gate_max=1000000000000
p_state_clk_gate_min=1000
power_model=Null
prefetch_on_access=false
prefetcher=Null
response_latency=2
sequential_access=false
size=1024
system=system
tag_latency=2
tags=system.cpu3.itb_walker_cache.tags
tgts_per_mshr=12
write_buffers=8
writeback_clean=false
cpu_side=system.cpu3.itb.walker.port
mem_side=system.tol2bus.slave[14]

[system.cpu3.itb_walker_cache.tags]
type=LRU
assoc=2
block_size=64
clk_domain=system.cpu_clk_domain
data_latency=2
default_p_state=UNDEFINED
eventq_index=0
p_state_clk_gate_bins=20
p_state_clk_gate_max=1000000000000
p_state_clk_gate_min=1000
power_model=Null
sequential_access=false
size=1024
tag_latency=2

[system.cpu3.tracer]
type=ExeTracer
eventq_index=0

[system.cpu4]
type=TimingSimpleCPU
children=apic_clk_domain dcache dtb dtb_walker_cache icache interrupts isa itb itb_walker_cache tracer
branchPred=Null
checker=Null
clk_domain=system.cpu_clk_domain
cpu_id=4
default_p_state=UNDEFINED
do_checkpoint_insts=true
do_quiesce=true
do_statistics_insts=true
dtb=system.cpu4.dtb
eventq_index=0
function_trace=false
function_trace_start=0
interrupts=system.cpu4.interrupts
isa=system.cpu4.isa
itb=system.cpu4.itb
max_insts_all_threads=0
max_insts_any_thread=300000000
max_loads_all_threads=0
max_loads_any_thread=0
numThreads=1
p_state_clk_gate_bins=20
p_state_clk_gate_max=1000000000000
p_state_clk_gate_min=1000
power_model=Null
profile=0
progress_interval=0
simpoint_start_insts=
socket_id=0
switched_out=false
syscallRetryLatency=10000
system=system
tracer=system.cpu4.tracer
wait_for_remote_gdb=false
workload=
dcache_port=system.cpu4.dcache.cpu_side
icache_port=system.cpu4.icache.cpu_side

[system.cpu4.apic_clk_domain]
type=DerivedClockDomain
clk_divider=16
clk_domain=system.cpu_clk_domain
eventq_index=0

[system.cpu4.dcache]
type=Cache
children=tags
addr_ranges=0:18446744073709551615:0:0:0:0
assoc=2
clk_domain=system.cpu_clk_domain
clusivity=mostly_incl
data_latency=2
default_p_state=UNDEFINED
demand_mshr_reserve=1
eventq_index=0
is_read_only=false
max_miss_count=0
mshrs=4
p_state_clk_gate_bins=20
p_state_clk_gate_max=1000000000000
p_state_clk_gate_min=1000
power_model=Null
prefetch_on_access=false
prefetcher=Null
response_latency=2
sequential_access=false
size=65536
system=system
tag_latency=2
tags=system.cpu4.dcache.tags
tgts_per_mshr=20
write_buffers=8
writeback_clean=false
cpu_side=system.cpu4.dcache_port
mem_side=system.tol2bus.slave[17]

[system.cpu4.dcache.tags]
type=LRU
assoc=2
block_size=64
clk_domain=system.cpu_clk_domain
data_latency=2
default_p_state=UNDEFINED
eventq_index=0
p_state_clk_gate_bins=20
p_state_clk_gate_max=1000000000000
p_state_clk_gate_min=1000
power_model=Null
sequential_access=false
size=65536
tag_latency=2

[system.cpu4.dtb]
type=X86TLB
children=walker
eventq_index=0
size=64
walker=system.cpu4.dtb.walker

[system.cpu4.dtb.walker]
type=X86PagetableWalker
clk_domain=system.cpu_clk_domain
default_p_state=UNDEFINED
eventq_index=0